/*--------------------------------*- C++ -*----------------------------------*\
| =========                 |                                                 |
| \\      /  F ield         | OpenFOAM: The Open Source CFD Toolbox           |
|  \\    /   O peration     | Version:  plus                                  |
|   \\  /    A nd           | Web:      www.OpenFOAM.com                      |
|    \\/     M anipulation  |                                                 |
\*---------------------------------------------------------------------------*/
FoamFile
{
    version     2.0;
    format      ascii;
    class       dictionary;
    object      fvSchemes;
}
// * * * * * * * * * * * * * * * * * * * * * * * * * * * * * * * * * * * * * //

ddtSchemes
{
    default Euler;
}

gradSchemes
{
    // pointCellsLeastSquares; seems to fail
    default         pointCellsLeastSquares; //Gauss linear; //
}

divSchemes
{
    default         none; //Gauss linear;
    div(phi,alpha)  Gauss vanLeer;

    div(phi,U)      Gauss limitedLinearV 1.0;
    div(rhoPhi,U)      Gauss limitedLinearV 1.0;
    
    div(((rho*nuEff)*dev2(T(grad(U))))) Gauss linear;
    div(rhoCpLPhi,T.water) Gauss linear;
    div(rhoCpVPhi,T.air) Gauss linear;
    

    // div(phirb,alpha) Gauss linear;
    // div(phi,U)      Gauss upwind;
    // div(rhoPhi,U)      Gauss upwind;
    // div(phi,K)      Gauss linear;
    // div(phi,h)      Gauss upwind;
    // div(phi,k)      Gauss upwind;
    // div(phi,epsilon) Gauss upwind;
    // div(phi,R)      Gauss upwind;
    // div(R)          Gauss linear;
    // div(((rho*nuEff)*dev2(T(grad(U))))) Gauss linear;
    // div(phiv,p)     Gauss linear;
    // div(phi,e)      Gauss upwind;
    // div(rhoCpLPhi,T.water) Gauss linear;
    // div(rhoCpVPhi,T.air) Gauss linear;
}

laplacianSchemes
{
    default        Gauss linear corrected;
}

interpolationSchemes
{
    default         linear;
}

snGradSchemes
{
    default         corrected;
}

fluxRequired
{
    p_rgh;
}

// ************************************************************************* //
