/*--------------------------------*- C++ -*----------------------------------*\
| =========                 |                                                 |
| \\      /  F ield         | OpenFOAM: The Open Source CFD Toolbox           |
|  \\    /   O peration     | Version:  v1812                                 |
|   \\  /    A nd           | Web:      www.OpenFOAM.org                      |
|    \\/     M anipulation  |                                                 |
\*---------------------------------------------------------------------------*/
FoamFile
{
    version     2.0;
    format      ascii;
    class       dictionary;
    location    "system";
    object      balanceParDict;
}
// * * * * * * * * * * * * * * * * * * * * * * * * * * * * * * * * * * * * * //

numberOfSubdomains 6;

method          simple; //ptscotch; //clsutered //scotch

constraints
{
    refinementHistoryMultiDim
    {
        //- Decompose cells such that all cell originating from single cell
        //  end up on same processor
        type    refinementHistoryMultiDim;
    }
}

simpleCoeffs
{
    n               (3 2 1);
    delta           0.001;
}
// ************************************************************************* //
